<?xml version="1.0" encoding="UTF-8"?>

<!-- generated on 2025-04-28 12:07:07.724696 by randomTrips.py UNKNOWN
<configuration>
    <net-file value="norman.net.xml"/>
    <output-trip-file value="norman.trips.xml"/>
    <end value="1000.0"/>
</configuration>
-->

<routes xmlns:xsi="http://www.w3.org/2001/XMLSchema-instance" xsi:noNamespaceSchemaLocation="http://sumo.dlr.de/xsd/routes_file.xsd">
    <trip id="0" depart="0.00" from="148486227#1" to="-1237825476"/>
    <trip id="1" depart="1.00" from="-358701785#4" to="-153947224#1"/>
    <trip id="2" depart="2.00" from="158626086#1" to="148500379#6"/>
    <trip id="3" depart="3.00" from="390081625#1" to="-14712483#6"/>
    <trip id="4" depart="4.00" from="-850669144#3" to="-138286387#0"/>
    <trip id="5" depart="5.00" from="-149012058#0" to="14709698#2"/>
    <trip id="6" depart="6.00" from="-1237825477#1" to="-148516518"/>
    <trip id="7" depart="7.00" from="148489362#5" to="14712483#6"/>
    <trip id="8" depart="8.00" from="-149032599#0" to="14714743#0"/>
    <trip id="9" depart="9.00" from="361934630#9" to="-112636010#1"/>
    <trip id="10" depart="10.00" from="361934630#4" to="148996326#1"/>
    <trip id="11" depart="11.00" from="-378375193" to="-14715750#0"/>
    <trip id="12" depart="12.00" from="683290963#2" to="-388293044#1"/>
    <trip id="13" depart="13.00" from="-14712579#1" to="-14712680"/>
    <trip id="14" depart="14.00" from="361968392#1" to="14714885#4"/>
    <trip id="15" depart="15.00" from="361934630#6" to="153947222#2"/>
    <trip id="16" depart="16.00" from="14712128#1" to="740144756"/>
    <trip id="17" depart="17.00" from="-445387084#7" to="14712608#6"/>
    <trip id="18" depart="18.00" from="361948086#0" to="14715704#2"/>
    <trip id="19" depart="19.00" from="375850777#0" to="14713697"/>
    <trip id="20" depart="20.00" from="148999251#5" to="-14709601#1"/>
    <trip id="21" depart="21.00" from="-153947224#1" to="-361948082#2"/>
    <trip id="22" depart="22.00" from="-14712181#1" to="-317868720#2"/>
    <trip id="23" depart="23.00" from="-14712693#1" to="-361934630#10"/>
    <trip id="24" depart="24.00" from="14716884#1" to="-390848163#9"/>
    <trip id="25" depart="25.00" from="-390848163#9" to="-148999252#1"/>
    <trip id="26" depart="26.00" from="-358687974#0" to="449617738"/>
    <trip id="27" depart="27.00" from="148489362#3" to="14715004#2"/>
    <trip id="28" depart="28.00" from="-14716884#1" to="153947222#1"/>
    <trip id="29" depart="29.00" from="-14715760#3" to="-447767065#3"/>
    <trip id="30" depart="30.00" from="851571354#0" to="148486227#1"/>
    <trip id="31" depart="31.00" from="14712608#8" to="148516542#2"/>
    <trip id="32" depart="32.00" from="361967773#7" to="358687962#9"/>
    <trip id="33" depart="33.00" from="-153947224#3" to="-138286387#4"/>
    <trip id="34" depart="34.00" from="-361970930#0" to="-358701785#0"/>
    <trip id="35" depart="35.00" from="-148516650" to="546679839#5"/>
    <trip id="36" depart="36.00" from="378237434#6" to="-363974282"/>
    <trip id="37" depart="37.00" from="148491404#0" to="-674809696#2"/>
    <trip id="38" depart="38.00" from="396109593#0" to="1213906898#2"/>
    <trip id="39" depart="39.00" from="-358687962#7" to="-343123559"/>
    <trip id="40" depart="40.00" from="14712693#3" to="-358687962#9"/>
    <trip id="41" depart="41.00" from="14714292#0" to="390081627#5"/>
    <trip id="42" depart="42.00" from="-608532644#8" to="-153944820#1"/>
    <trip id="43" depart="43.00" from="90548307#3" to="14710194#1"/>
    <trip id="44" depart="44.00" from="-14712483#7" to="-14709601#3"/>
    <trip id="45" depart="45.00" from="-14713012#1" to="14715870#0"/>
    <trip id="46" depart="46.00" from="360915014#1" to="-851571354#2"/>
    <trip id="47" depart="47.00" from="-14710599" to="-543923723"/>
    <trip id="48" depart="48.00" from="90548307#1" to="14711559#4"/>
    <trip id="49" depart="49.00" from="740144754#2" to="375850777#0"/>
    <trip id="50" depart="50.00" from="-1158301144#1" to="150698902#2"/>
    <trip id="51" depart="51.00" from="148516525#0" to="14712181#4"/>
    <trip id="52" depart="52.00" from="-358687974#0" to="148486227#2"/>
    <trip id="53" depart="53.00" from="-14713012#4" to="1058365524#4"/>
    <trip id="54" depart="54.00" from="1158301143" to="674821889#2"/>
    <trip id="55" depart="55.00" from="378237434#5" to="-358687974#0"/>
    <trip id="56" depart="56.00" from="14709195#0" to="-148489362#6"/>
    <trip id="57" depart="57.00" from="390848163#7" to="378236888"/>
    <trip id="58" depart="58.00" from="-361948083#0" to="148486222"/>
    <trip id="59" depart="59.00" from="14715004#0" to="-14715729#0"/>
    <trip id="60" depart="60.00" from="350908339#0" to="14712181#7"/>
    <trip id="61" depart="61.00" from="358687974#1" to="14711804#1"/>
    <trip id="62" depart="62.00" from="-1058365522" to="-375850781#2"/>
    <trip id="63" depart="63.00" from="-1226980067" to="447767064#2"/>
    <trip id="64" depart="64.00" from="378237436" to="361948086#2"/>
    <trip id="65" depart="65.00" from="-361967773#5" to="-14710375#1"/>
    <trip id="66" depart="66.00" from="378237435" to="608532644#3"/>
    <trip id="67" depart="67.00" from="-14712181#9" to="14708930#2"/>
    <trip id="68" depart="68.00" from="-14711256#3" to="350908339#0"/>
    <trip id="69" depart="69.00" from="358687956#10" to="-14714828#1"/>
    <trip id="70" depart="70.00" from="1227059582" to="14712608#2"/>
    <trip id="71" depart="71.00" from="-358687962#7" to="378237434#0"/>
    <trip id="72" depart="72.00" from="-850669144#5" to="-148999252#4"/>
    <trip id="73" depart="73.00" from="14712181#3" to="153947222#2"/>
    <trip id="74" depart="74.00" from="-148500379#4" to="-362442517#1"/>
    <trip id="75" depart="75.00" from="90461713#2" to="148489362#4"/>
    <trip id="76" depart="76.00" from="1058365524#2" to="14710669"/>
    <trip id="77" depart="77.00" from="-14714133#1" to="-153947224#3"/>
    <trip id="78" depart="78.00" from="-378237434#7" to="14714636#0"/>
    <trip id="79" depart="79.00" from="-153947224#4" to="-153944820#2"/>
    <trip id="80" depart="80.00" from="-14711342#0" to="14716022#2"/>
    <trip id="81" depart="81.00" from="-153947224#3" to="390848163#16"/>
    <trip id="82" depart="82.00" from="363974282" to="-14711559#1"/>
    <trip id="83" depart="83.00" from="-343122181#1" to="148500374#3"/>
    <trip id="84" depart="84.00" from="-148999251#4" to="-14714828#4"/>
    <trip id="85" depart="85.00" from="449611231#1" to="14713012#2"/>
    <trip id="86" depart="86.00" from="1227032886" to="358689579#1"/>
    <trip id="87" depart="87.00" from="361934630#6" to="-148498031#3"/>
    <trip id="88" depart="88.00" from="-14712608#5" to="1058365523#0"/>
    <trip id="89" depart="89.00" from="-850669144#5" to="1227032885#0"/>
    <trip id="90" depart="90.00" from="153947222#0" to="148500379#10"/>
    <trip id="91" depart="91.00" from="850669144#3" to="-14712693#1"/>
    <trip id="92" depart="92.00" from="-674821889#1" to="-390081622#0"/>
    <trip id="93" depart="93.00" from="375850777#0" to="-350908339#2"/>
    <trip id="94" depart="94.00" from="-148491399" to="1158301142"/>
    <trip id="95" depart="95.00" from="-850669144#3" to="-361934630#2"/>
    <trip id="96" depart="96.00" from="-343123558" to="446139912"/>
    <trip id="97" depart="97.00" from="1144260155" to="375850777#1"/>
    <trip id="98" depart="98.00" from="14712579#0" to="-14709601#8"/>
    <trip id="99" depart="99.00" from="90548309" to="361948661#4"/>
    <trip id="100" depart="100.00" from="740144747#1" to="446919852"/>
    <trip id="101" depart="101.00" from="361968392#2" to="-14716897#1"/>
    <trip id="102" depart="102.00" from="1248856298" to="-149012063"/>
    <trip id="103" depart="103.00" from="-674809696#2" to="-14710375#2"/>
    <trip id="104" depart="104.00" from="-445387084#8" to="850669144#3"/>
    <trip id="105" depart="105.00" from="-358687962#7" to="358689579#0"/>
    <trip id="106" depart="106.00" from="1158301144#0" to="-851571354#3"/>
    <trip id="107" depart="107.00" from="683290963#2" to="90461713#1"/>
    <trip id="108" depart="108.00" from="14712608#6" to="150698899#4"/>
    <trip id="109" depart="109.00" from="-14715704#1" to="-361948086#3"/>
    <trip id="110" depart="110.00" from="740144747#1" to="14713848#1"/>
    <trip id="111" depart="111.00" from="14712181#7" to="343122181#1"/>
    <trip id="112" depart="112.00" from="-14710170#1" to="14714292#2"/>
    <trip id="113" depart="113.00" from="14709601#1" to="362440658#1"/>
    <trip id="114" depart="114.00" from="-14715729#0" to="692703807#1"/>
    <trip id="115" depart="115.00" from="-14712181#1" to="-148493665#1"/>
    <trip id="116" depart="116.00" from="14714828#1" to="148500379#4"/>
    <trip id="117" depart="117.00" from="-317868720#0" to="-14714399#0"/>
    <trip id="118" depart="118.00" from="390081622#3" to="-343123558"/>
    <trip id="119" depart="119.00" from="14714828#0" to="14715704#3"/>
    <trip id="120" depart="120.00" from="-850661701" to="14714292#1"/>
    <trip id="121" depart="121.00" from="14711022#1" to="449611230"/>
    <trip id="122" depart="122.00" from="-148500379#9" to="150698899#0"/>
    <trip id="123" depart="123.00" from="-343122181#2" to="-674809696#2"/>
    <trip id="124" depart="124.00" from="148500379#0" to="-361967773#2"/>
    <trip id="125" depart="125.00" from="-362442517#0" to="343122182#2"/>
    <trip id="126" depart="126.00" from="-14711536#1" to="1213906898#1"/>
    <trip id="127" depart="127.00" from="90548307#4" to="90548307#1"/>
    <trip id="128" depart="128.00" from="-14711559#0" to="-149012058#0"/>
    <trip id="129" depart="129.00" from="-358687962#7" to="447767065#5"/>
    <trip id="130" depart="130.00" from="384459540#0" to="378237790#0"/>
    <trip id="131" depart="131.00" from="-390848163#8" to="-14715760#2"/>
    <trip id="132" depart="132.00" from="361948661#1" to="148999251#4"/>
    <trip id="133" depart="133.00" from="14715012#0" to="850669144#6"/>
    <trip id="134" depart="134.00" from="148491396" to="-1144260165"/>
    <trip id="135" depart="135.00" from="361948081#0" to="-361967773#11"/>
    <trip id="136" depart="136.00" from="148498031#0" to="543923724"/>
    <trip id="137" depart="137.00" from="-14714828#12" to="-14713848#3"/>
    <trip id="138" depart="138.00" from="-14712693#9" to="14712608#8"/>
    <trip id="139" depart="139.00" from="-358701785#0" to="14714987#1"/>
    <trip id="140" depart="140.00" from="150698899#0" to="-148516631"/>
    <trip id="141" depart="141.00" from="14716467#1" to="-358687974#1"/>
    <trip id="142" depart="142.00" from="138286387#3" to="390848163#15"/>
    <trip id="143" depart="143.00" from="361968387#2" to="-14712608#2"/>
    <trip id="144" depart="144.00" from="-850669144#5" to="-361934630#0"/>
    <trip id="145" depart="145.00" from="-1058365524#2" to="358687962#2"/>
    <trip id="146" depart="146.00" from="14716897#1" to="-358687962#8"/>
    <trip id="147" depart="147.00" from="160235643#0" to="14712608#5"/>
    <trip id="148" depart="148.00" from="-851571354#2" to="-1158301142"/>
    <trip id="149" depart="149.00" from="-14711559#3" to="388293044#0"/>
    <trip id="150" depart="150.00" from="390848163#12" to="14712483#7"/>
    <trip id="151" depart="151.00" from="361948661#3" to="14714133#2"/>
    <trip id="152" depart="152.00" from="-14715057#0" to="-14714828#0"/>
    <trip id="153" depart="153.00" from="-361967773#6" to="390081627#7"/>
    <trip id="154" depart="154.00" from="361758150#1" to="375850777#0"/>
    <trip id="155" depart="155.00" from="390081627#6" to="-148999252#2"/>
    <trip id="156" depart="156.00" from="-343123557" to="-14712693#6"/>
    <trip id="157" depart="157.00" from="358687974#3" to="388293044#2"/>
    <trip id="158" depart="158.00" from="-683290963#1" to="14715729#0"/>
    <trip id="159" depart="159.00" from="-14715704#1" to="447767065#0"/>
    <trip id="160" depart="160.00" from="375850778#1" to="822124937#0"/>
    <trip id="161" depart="161.00" from="361946053#1" to="384459540#0"/>
    <trip id="162" depart="162.00" from="-1237825476" to="160235638#0"/>
    <trip id="163" depart="163.00" from="-378237433#0" to="447767065#1"/>
    <trip id="164" depart="164.00" from="361933659#1" to="375850778#1"/>
    <trip id="165" depart="165.00" from="361946053#1" to="-358689579#0"/>
    <trip id="166" depart="166.00" from="358689581" to="-14713012#3"/>
    <trip id="167" depart="167.00" from="378237433#1" to="362442518#3"/>
    <trip id="168" depart="168.00" from="-149032599#3" to="361948080"/>
    <trip id="169" depart="169.00" from="116613638#2" to="-361968387#0"/>
    <trip id="170" depart="170.00" from="361758150#0" to="-158626086#1"/>
    <trip id="171" depart="171.00" from="-1227032887" to="-148500379#2"/>
    <trip id="172" depart="172.00" from="-375850781#1" to="375850779"/>
    <trip id="173" depart="173.00" from="717611525#2" to="-361934630#2"/>
    <trip id="174" depart="174.00" from="148489355#2" to="-674821890#1"/>
    <trip id="175" depart="175.00" from="850661701" to="14712181#3"/>
    <trip id="176" depart="176.00" from="546679839#0" to="-14713848#3"/>
    <trip id="177" depart="177.00" from="740144754#1" to="-148489362#6"/>
    <trip id="178" depart="178.00" from="716729890#0" to="-358687974#3"/>
    <trip id="179" depart="179.00" from="-14712957" to="1058365524#4"/>
    <trip id="180" depart="180.00" from="153944820#2" to="-362442518#2"/>
    <trip id="181" depart="181.00" from="14714987#0" to="14710375#0"/>
    <trip id="182" depart="182.00" from="-447767065#3" to="14713406#2"/>
    <trip id="183" depart="183.00" from="-358687956#10" to="149012036#1"/>
    <trip id="184" depart="184.00" from="-1058365523#1" to="446707071"/>
    <trip id="185" depart="185.00" from="14712181#10" to="150698902#0"/>
    <trip id="186" depart="186.00" from="160235643#1" to="148500378#0"/>
    <trip id="187" depart="187.00" from="-390848163#18" to="-14711559#0"/>
    <trip id="188" depart="188.00" from="148498031#1" to="-378237434#4"/>
    <trip id="189" depart="189.00" from="-361968392#1" to="361968392#2"/>
    <trip id="190" depart="190.00" from="150698899#4" to="-361967773#3"/>
    <trip id="191" depart="191.00" from="-361967773#8" to="-740144756"/>
    <trip id="192" depart="192.00" from="-674821889#1" to="-361948086#2"/>
    <trip id="193" depart="193.00" from="-14714636#0" to="-850677651"/>
    <trip id="194" depart="194.00" from="546679839#2" to="148500379#7"/>
    <trip id="195" depart="195.00" from="390848163#10" to="14715406#3"/>
    <trip id="196" depart="196.00" from="-361948086#1" to="14712579#1"/>
    <trip id="197" depart="197.00" from="-1058365522" to="-361948081#2"/>
    <trip id="198" depart="198.00" from="-851571354#5" to="14713848#3"/>
    <trip id="199" depart="199.00" from="148491399" to="1226984887#1"/>
    <trip id="200" depart="200.00" from="112636010#2" to="-149012063"/>
    <trip id="201" depart="201.00" from="1227032886" to="390848163#1"/>
    <trip id="202" depart="202.00" from="361758150#1" to="-148489355#2"/>
    <trip id="203" depart="203.00" from="-14712181#8" to="14710538#1"/>
    <trip id="204" depart="204.00" from="14716436#1" to="-384459540#1"/>
    <trip id="205" depart="205.00" from="361948081#2" to="343122182#1"/>
    <trip id="206" depart="206.00" from="148500379#10" to="-153947224#3"/>
    <trip id="207" depart="207.00" from="-148500379#10" to="-1227032888"/>
    <trip id="208" depart="208.00" from="-343123555#0" to="1241295486#0"/>
    <trip id="209" depart="209.00" from="361970930#1" to="-14711559#4"/>
    <trip id="210" depart="210.00" from="-740144756" to="14716022#0"/>
    <trip id="211" depart="211.00" from="-148498031#0" to="148516631"/>
    <trip id="212" depart="212.00" from="14709000#3" to="-343123555#5"/>
    <trip id="213" depart="213.00" from="148491404#1" to="-112636010#0"/>
    <trip id="214" depart="214.00" from="343122181#3" to="358687962#0"/>
    <trip id="215" depart="215.00" from="-14712693#8" to="-851571354#6"/>
    <trip id="216" depart="216.00" from="-148489355#0" to="683290963#2"/>
    <trip id="217" depart="217.00" from="14710483#0" to="-14709601#7"/>
    <trip id="218" depart="218.00" from="-343123557" to="361968392#2"/>
    <trip id="219" depart="219.00" from="1158301144#3" to="361933659#0"/>
    <trip id="220" depart="220.00" from="148500374#2" to="850669144#7"/>
    <trip id="221" depart="221.00" from="14714828#10" to="608532644#8"/>
    <trip id="222" depart="222.00" from="390081625#0" to="14715132#1"/>
    <trip id="223" depart="223.00" from="150698899#3" to="14709698#1"/>
    <trip id="224" depart="224.00" from="361948086#2" to="14712579#1"/>
    <trip id="225" depart="225.00" from="390081627#4" to="160289941#1"/>
    <trip id="226" depart="226.00" from="1227059581" to="-358687962#4"/>
    <trip id="227" depart="227.00" from="-343123555#4" to="14716897#1"/>
    <trip id="228" depart="228.00" from="358687956#10" to="14711256#1"/>
    <trip id="229" depart="229.00" from="14715760#2" to="-361758150#2"/>
    <trip id="230" depart="230.00" from="-14711804#1" to="-361948081#1"/>
    <trip id="231" depart="231.00" from="-358689579#1" to="-375850778#1"/>
    <trip id="232" depart="232.00" from="14712181#4" to="-14714885#4"/>
    <trip id="233" depart="233.00" from="-158626086#1" to="148516629#0"/>
    <trip id="234" depart="234.00" from="148999252#2" to="-14711022#2"/>
    <trip id="235" depart="235.00" from="-683290963#3" to="14712483#2"/>
    <trip id="236" depart="236.00" from="-740698329#0" to="-148999251#3"/>
    <trip id="237" depart="237.00" from="-850669144#0" to="390848163#15"/>
    <trip id="238" depart="238.00" from="14714133#2" to="148516629#3"/>
    <trip id="239" depart="239.00" from="362442518#0" to="358687956#3"/>
    <trip id="240" depart="240.00" from="-447606490" to="-112636010#1"/>
    <trip id="241" depart="241.00" from="-390081627#11" to="343123553"/>
    <trip id="242" depart="242.00" from="362440658#2" to="674821889#1"/>
    <trip id="243" depart="243.00" from="-850661700#2" to="343122181#0"/>
    <trip id="244" depart="244.00" from="14712483#3" to="14714885#3"/>
    <trip id="245" depart="245.00" from="-149032599#0" to="-153944820#1"/>
    <trip id="246" depart="246.00" from="1058365523#0" to="-1241295486#2"/>
    <trip id="247" depart="247.00" from="-378237434#4" to="148500384"/>
    <trip id="248" depart="248.00" from="-674821890#0" to="-14716897#0"/>
    <trip id="249" depart="249.00" from="1226984886#0" to="-14714828#0"/>
    <trip id="250" depart="250.00" from="14715729#0" to="-1237825477#2"/>
    <trip id="251" depart="251.00" from="-608532644#0" to="14712821#2"/>
    <trip id="252" depart="252.00" from="-1237825477#2" to="148489355#2"/>
    <trip id="253" depart="253.00" from="-14714828#3" to="1226980070"/>
    <trip id="254" depart="254.00" from="-14709601#8" to="-447767065#3"/>
    <trip id="255" depart="255.00" from="-148999251#0" to="-378237433#1"/>
    <trip id="256" depart="256.00" from="343123558" to="-447767065#3"/>
    <trip id="257" depart="257.00" from="343122182#0" to="361948086#3"/>
    <trip id="258" depart="258.00" from="-350908339#1" to="-14712181#8"/>
    <trip id="259" depart="259.00" from="-1226980067" to="14712181#7"/>
    <trip id="260" depart="260.00" from="95039232" to="-390081627#6"/>
    <trip id="261" depart="261.00" from="148489362#6" to="358688347#3"/>
    <trip id="262" depart="262.00" from="148489362#8" to="343123555#0"/>
    <trip id="263" depart="263.00" from="608532644#8" to="-148516521"/>
    <trip id="264" depart="264.00" from="-1226980070" to="-14715704#3"/>
    <trip id="265" depart="265.00" from="-14714399#3" to="148500374#4"/>
    <trip id="266" depart="266.00" from="14712693#7" to="-149032599#4"/>
    <trip id="267" depart="267.00" from="148996326#2" to="358687956#5"/>
    <trip id="268" depart="268.00" from="-14716022#2" to="14714987#4"/>
    <trip id="269" depart="269.00" from="339821429" to="-14713848#2"/>
    <trip id="270" depart="270.00" from="361948081#3" to="716729890#2"/>
    <trip id="271" depart="271.00" from="-14712738" to="-1237825477#0"/>
    <trip id="272" depart="272.00" from="-361968387#2" to="148500379#7"/>
    <trip id="273" depart="273.00" from="683290963#3" to="-674821889#1"/>
    <trip id="274" depart="274.00" from="149032599#3" to="-14712181#0"/>
    <trip id="275" depart="275.00" from="148516620#4" to="14715870#0"/>
    <trip id="276" depart="276.00" from="-14712693#11" to="358687962#4"/>
    <trip id="277" depart="277.00" from="361974555#0" to="14714828#9"/>
    <trip id="278" depart="278.00" from="-14714133#1" to="850669144#1"/>
    <trip id="279" depart="279.00" from="358688347#3" to="-390081627#2"/>
    <trip id="280" depart="280.00" from="-851571354#3" to="-445387084#3"/>
    <trip id="281" depart="281.00" from="14709601#6" to="-390081622#3"/>
    <trip id="282" depart="282.00" from="361970930#1" to="361948082#3"/>
    <trip id="283" depart="283.00" from="-14712693#6" to="692703807#1"/>
    <trip id="284" depart="284.00" from="14716884#0" to="361948084#3"/>
    <trip id="285" depart="285.00" from="148999252#4" to="112636009"/>
    <trip id="286" depart="286.00" from="153947224#3" to="717611524"/>
    <trip id="287" depart="287.00" from="-358689577#1" to="361934630#7"/>
    <trip id="288" depart="288.00" from="14712181#10" to="138286387#3"/>
    <trip id="289" depart="289.00" from="1058365523#0" to="153947224#1"/>
    <trip id="290" depart="290.00" from="-358687974#2" to="361974555#2"/>
    <trip id="291" depart="291.00" from="361948086#2" to="-14712483#5"/>
    <trip id="292" depart="292.00" from="384459540#1" to="-343123555#4"/>
    <trip id="293" depart="293.00" from="1213906899" to="14715012#1"/>
    <trip id="294" depart="294.00" from="-445387084#8" to="-1241295486#1"/>
    <trip id="295" depart="295.00" from="361974555#1" to="-148491393"/>
    <trip id="296" depart="296.00" from="-148999251#1" to="361758150#5"/>
    <trip id="297" depart="297.00" from="-384459540#0" to="378237791"/>
    <trip id="298" depart="298.00" from="148999251#0" to="-361758150#5"/>
    <trip id="299" depart="299.00" from="-1158301143" to="608532644#5"/>
    <trip id="300" depart="300.00" from="-14712181#9" to="150698902#1"/>
    <trip id="301" depart="301.00" from="138286387#3" to="343123556#1"/>
    <trip id="302" depart="302.00" from="148516620#4" to="148489362#0"/>
    <trip id="303" depart="303.00" from="14708930#0" to="360945929#1"/>
    <trip id="304" depart="304.00" from="-14712579#1" to="-153947222#1"/>
    <trip id="305" depart="305.00" from="148516620#6" to="-361968387#2"/>
    <trip id="306" depart="306.00" from="14713848#3" to="1237825477#0"/>
    <trip id="307" depart="307.00" from="14711559#2" to="-851573613"/>
    <trip id="308" depart="308.00" from="317868720#0" to="-378237434#5"/>
    <trip id="309" depart="309.00" from="148999251#3" to="-360915014#0"/>
    <trip id="310" depart="310.00" from="-350908339#0" to="-14714399#1"/>
    <trip id="311" depart="311.00" from="-148493665#1" to="-14714399#0"/>
    <trip id="312" depart="312.00" from="14712128#1" to="350908339#2"/>
    <trip id="313" depart="313.00" from="-148489362#6" to="-149032599#1"/>
    <trip id="314" depart="314.00" from="1248856296" to="150698904#5"/>
    <trip id="315" depart="315.00" from="850661694#0" to="14711342#1"/>
    <trip id="316" depart="316.00" from="-361934630#10" to="-14712693#3"/>
    <trip id="317" depart="317.00" from="-148493669" to="-158626086#1"/>
    <trip id="318" depart="318.00" from="-148489355#6" to="-1158301158#1"/>
    <trip id="319" depart="319.00" from="14711804#2" to="-361758150#2"/>
    <trip id="320" depart="320.00" from="740698329#1" to="14712608#8"/>
    <trip id="321" depart="321.00" from="148516650" to="-14714772#1"/>
    <trip id="322" depart="322.00" from="375850781#2" to="14709157#1"/>
    <trip id="323" depart="323.00" from="378237434#0" to="14713101"/>
    <trip id="324" depart="324.00" from="1226984887#1" to="1144260158#1"/>
    <trip id="325" depart="325.00" from="-148489362#4" to="-14709698#0"/>
    <trip id="326" depart="326.00" from="546679839#3" to="1248856294"/>
    <trip id="327" depart="327.00" from="361948082#4" to="-683290963#1"/>
    <trip id="328" depart="328.00" from="-14711559#1" to="14715870#3"/>
    <trip id="329" depart="329.00" from="-14709698#3" to="-14715406#4"/>
    <trip id="330" depart="330.00" from="14712693#5" to="-361967773#8"/>
    <trip id="331" depart="331.00" from="90461713#0" to="-14714292#1"/>
    <trip id="332" depart="332.00" from="358687956#0" to="14714987#3"/>
    <trip id="333" depart="333.00" from="358701785#3" to="-153947224#4"/>
    <trip id="334" depart="334.00" from="14711022#1" to="1158301144#1"/>
    <trip id="335" depart="335.00" from="1144260155" to="364566658#1"/>
    <trip id="336" depart="336.00" from="851571354#1" to="-361968387#1"/>
    <trip id="337" depart="337.00" from="14715704#2" to="14715004#3"/>
    <trip id="338" depart="338.00" from="160235641#0" to="608532644#4"/>
    <trip id="339" depart="339.00" from="-148516629#0" to="-148999252#3"/>
    <trip id="340" depart="340.00" from="148498028" to="-14715760#1"/>
    <trip id="341" depart="341.00" from="-148486227#0" to="-14711804#3"/>
    <trip id="342" depart="342.00" from="-1058365524#1" to="1158301144#1"/>
    <trip id="343" depart="343.00" from="14714772#2" to="-361948082#5"/>
    <trip id="344" depart="344.00" from="-160235638#0" to="148999252#3"/>
    <trip id="345" depart="345.00" from="148999251#3" to="116613638#0"/>
    <trip id="346" depart="346.00" from="148516615#1" to="446707069"/>
    <trip id="347" depart="347.00" from="358689873" to="14715760#1"/>
    <trip id="348" depart="348.00" from="148498029#0" to="447767065#6"/>
    <trip id="349" depart="349.00" from="-850676128#1" to="14712483#5"/>
    <trip id="350" depart="350.00" from="148489362#2" to="390848163#2"/>
    <trip id="351" depart="351.00" from="361948084#1" to="-14711559#2"/>
    <trip id="352" depart="352.00" from="-14715870#3" to="-361968392#0"/>
    <trip id="353" depart="353.00" from="343122181#0" to="14712957"/>
    <trip id="354" depart="354.00" from="-361934630#9" to="-14714743#0"/>
    <trip id="355" depart="355.00" from="148516620#1" to="148996326#3"/>
    <trip id="356" depart="356.00" from="546679839#6" to="14709601#5"/>
    <trip id="357" depart="357.00" from="14709000#2" to="-14712181#6"/>
    <trip id="358" depart="358.00" from="-14709157#3" to="1058365524#0"/>
    <trip id="359" depart="359.00" from="-375850777#1" to="-358687956#1"/>
    <trip id="360" depart="360.00" from="-14712483#8" to="692703808#0"/>
    <trip id="361" depart="361.00" from="361948763" to="14713406#0"/>
    <trip id="362" depart="362.00" from="674809696#1" to="95039212"/>
    <trip id="363" depart="363.00" from="148500379#1" to="-358701785#3"/>
    <trip id="364" depart="364.00" from="-14709157#3" to="343123555#3"/>
    <trip id="365" depart="365.00" from="1226984887#2" to="148489362#6"/>
    <trip id="366" depart="366.00" from="443387080#0" to="-148491393"/>
    <trip id="367" depart="367.00" from="14714292#1" to="14716467#2"/>
    <trip id="368" depart="368.00" from="14708930#2" to="-14712608#0"/>
    <trip id="369" depart="369.00" from="-390081622#3" to="-378237435"/>
    <trip id="370" depart="370.00" from="148500374#5" to="362442518#1"/>
    <trip id="371" depart="371.00" from="-375852680#0" to="148516629#0"/>
    <trip id="372" depart="372.00" from="-361934630#9" to="608532644#0"/>
    <trip id="373" depart="373.00" from="361946054#4" to="14712608#3"/>
    <trip id="374" depart="374.00" from="1158301144#0" to="-363974282"/>
    <trip id="375" depart="375.00" from="-375850777#2" to="740144754#1"/>
    <trip id="376" depart="376.00" from="-674821890#0" to="14710483#1"/>
    <trip id="377" depart="377.00" from="850676128#1" to="148491429#0"/>
    <trip id="378" depart="378.00" from="14712181#8" to="-850661701"/>
    <trip id="379" depart="379.00" from="-148489362#9" to="-390848163#4"/>
    <trip id="380" depart="380.00" from="343123555#1" to="14715760#1"/>
    <trip id="381" depart="381.00" from="343123556#0" to="-148516631"/>
    <trip id="382" depart="382.00" from="14712506#0" to="447767064#0"/>
    <trip id="383" depart="383.00" from="1058365524#2" to="148996326#1"/>
    <trip id="384" depart="384.00" from="-14714133#2" to="740144756"/>
    <trip id="385" depart="385.00" from="14715004#0" to="-343122182#3"/>
    <trip id="386" depart="386.00" from="-14715729#1" to="14712608#4"/>
    <trip id="387" depart="387.00" from="14712608#1" to="-14712608#3"/>
    <trip id="388" depart="388.00" from="851571354#5" to="390848163#9"/>
    <trip id="389" depart="389.00" from="1173593779#0" to="-14714292#0"/>
    <trip id="390" depart="390.00" from="361948660" to="14709601#2"/>
    <trip id="391" depart="391.00" from="150698897#1" to="14710170#1"/>
    <trip id="392" depart="392.00" from="-358701785#2" to="361948661#2"/>
    <trip id="393" depart="393.00" from="850661700#0" to="-343123555#4"/>
    <trip id="394" depart="394.00" from="14712579#1" to="-546679839#1"/>
    <trip id="395" depart="395.00" from="445387084#7" to="14710170#0"/>
    <trip id="396" depart="396.00" from="378237790#0" to="375850778#1"/>
    <trip id="397" depart="397.00" from="-360915014#1" to="360915014#0"/>
    <trip id="398" depart="398.00" from="-740698328" to="449611230"/>
    <trip id="399" depart="399.00" from="14709601#8" to="361948082#0"/>
    <trip id="400" depart="400.00" from="-361934630#1" to="-361967773#10"/>
    <trip id="401" depart="401.00" from="14714399#1" to="946223906"/>
    <trip id="402" depart="402.00" from="142209472" to="-14715406#3"/>
    <trip id="403" depart="403.00" from="14712181#2" to="-390081627#10"/>
    <trip id="404" depart="404.00" from="14712608#0" to="14712483#4"/>
    <trip id="405" depart="405.00" from="1158301144#1" to="-375850780#1"/>
    <trip id="406" depart="406.00" from="-148491393" to="148516650"/>
    <trip id="407" depart="407.00" from="14712957" to="-343122181#0"/>